Version 4
SHEET 1 1040 680
WIRE 80 96 -48 96
WIRE 304 96 192 96
WIRE 608 96 416 96
WIRE -48 128 -48 96
WIRE 608 128 528 128
WIRE 528 208 528 128
WIRE -48 336 -48 208
WIRE 528 336 528 288
WIRE 528 336 -48 336
WIRE -48 432 -48 336
FLAG -48 432 0
SYMBOL voltage -48 112 R0
WINDOW 3 22 91 Left 2
WINDOW 123 34 55 Left 2
WINDOW 39 0 0 Left 2
SYMATTR Value {Vs}
SYMATTR InstName VSup
SYMBOL voltage 528 192 R0
SYMATTR InstName VSig
SYMATTR Value PULSE({Vgl} {Vgh} {tst} {trf} {trf} {to} {tper})
SYMBOL CrowbarCircuitModel 128 96 R0
SYMATTR InstName Crowbar
SYMBOL DCMotorCircuitModel 352 96 R0
SYMATTR InstName DCMotor
SYMBOL NMOSControlCircuitModel 688 112 R0
SYMATTR InstName NMOSControl
TEXT 104 528 Left 2 !.param Vs=10 Vgh=5 Vgl=0 tst=10m trf=5m to=500m tper=1
TEXT 320 488 Left 2 !.tran {tper+10m}
