Version 4
SHEET 1 1112 952
WIRE 432 -576 384 -576
WIRE 544 -576 496 -576
WIRE -512 -416 -608 -416
WIRE -336 -416 -432 -416
WIRE -240 -416 -336 -416
WIRE -64 -416 -240 -416
WIRE -32 -416 -64 -416
WIRE 128 -416 32 -416
WIRE 176 -416 128 -416
WIRE 304 -416 256 -416
WIRE 384 -416 384 -576
WIRE 384 -416 304 -416
WIRE 416 -416 384 -416
WIRE 544 -416 544 -576
WIRE 544 -416 512 -416
WIRE 816 -416 544 -416
WIRE -240 -336 -240 -416
WIRE 496 -336 496 -368
WIRE 560 -336 496 -336
WIRE 816 -336 816 -416
WIRE 816 -336 640 -336
WIRE 128 -320 128 -416
WIRE 176 -320 128 -320
WIRE 304 -320 304 -416
WIRE 304 -320 240 -320
WIRE 496 -288 496 -336
WIRE -64 -272 -64 -416
WIRE -608 -256 -608 -416
WIRE -336 -240 -336 -416
WIRE -240 -208 -240 -272
WIRE -160 -208 -240 -208
WIRE -112 -208 -160 -208
WIRE -240 -176 -240 -208
WIRE -160 -160 -160 -208
WIRE 496 -160 496 -208
WIRE 560 -160 496 -160
WIRE 688 -160 640 -160
WIRE 496 -128 496 -160
WIRE 688 -112 688 -160
WIRE -608 -16 -608 -176
WIRE -336 -16 -336 -176
WIRE -336 -16 -608 -16
WIRE -240 -16 -240 -96
WIRE -240 -16 -336 -16
WIRE -160 -16 -160 -96
WIRE -160 -16 -240 -16
WIRE -64 -16 -64 -208
WIRE -64 -16 -160 -16
WIRE 496 -16 496 -48
WIRE 496 -16 -64 -16
WIRE 688 -16 688 -48
WIRE 688 -16 496 -16
WIRE 816 -16 816 -336
WIRE 816 -16 688 -16
WIRE -608 16 -608 -16
FLAG -608 16 0
SYMBOL ind 160 -400 R270
WINDOW 0 32 56 VTop 2
WINDOW 3 5 56 VBottom 2
SYMATTR InstName L1
SYMATTR Value 4000m
SYMATTR SpiceLine Ipk=0.5 Rser=25 Rpar=100 Cpar=0.1u
SYMBOL voltage -608 -272 R0
WINDOW 123 0 0 Left 2
WINDOW 39 24 44 Left 2
SYMATTR InstName VSup
SYMATTR Value {Vs}
SYMBOL voltage 496 -144 R0
WINDOW 3 -563 341 Left 2
WINDOW 123 0 0 Left 2
WINDOW 39 0 0 Left 2
WINDOW 0 -76 12 Left 2
SYMATTR Value PULSE({Vgl} {Vgh} {tst} {trf} {trf} {to} {tper})
SYMATTR InstName VSig
SYMBOL nmos 416 -368 R270
WINDOW 3 60 74 Left 2
SYMATTR Value IRFL014
SYMATTR InstName M2
SYMBOL res 544 -320 R270
WINDOW 0 32 56 VTop 2
WINDOW 3 0 56 VBottom 2
SYMATTR InstName R4
SYMATTR Value 10K
SYMATTR SpiceLine tol=10 pwr=0.25
SYMBOL res 512 -192 R180
WINDOW 0 36 76 Left 2
WINDOW 3 36 40 Left 2
SYMATTR InstName R3
SYMATTR Value 2K
SYMATTR SpiceLine tol=10 pwr=0.25
SYMBOL LED 672 -112 R0
SYMATTR InstName D4
SYMATTR Value NSCW100
SYMBOL res 544 -144 R270
WINDOW 0 32 56 VTop 2
WINDOW 3 0 56 VBottom 2
SYMATTR InstName R5
SYMATTR Value 220
SYMATTR SpiceLine tol=10 pwr=0.25
SYMBOL zener -224 -272 R180
WINDOW 0 24 64 Left 2
WINDOW 3 -120 -7 Left 2
SYMATTR InstName D3
SYMATTR Value BZX84C15L
SYMATTR Description Diode
SYMATTR Type diode
SYMBOL schottky -32 -400 R270
WINDOW 0 32 32 VTop 2
WINDOW 3 0 32 VBottom 2
SYMATTR InstName D6
SYMATTR Value B560C
SYMATTR Description Diode
SYMATTR Type diode
SYMBOL polcap -176 -160 R0
SYMATTR InstName C2
SYMATTR Value 47nF
SYMATTR Description Capacitor
SYMATTR Type cap
SYMATTR SpiceLine V=50 Irms=170m Rser=1 Lser=0 mfg="Nichicon" pn="UPG1H4R7MPH" type="Al electrolytic"
SYMBOL polcap -352 -240 R0
SYMATTR InstName C3
SYMATTR Value 100nF
SYMATTR Description Capacitor
SYMATTR Type cap
SYMATTR SpiceLine V=50 Irms=170m Rser=1 Lser=0 mfg="Nichicon" pn="UPG1H4R7MPH" type="Al electrolytic"
SYMBOL res -256 -192 R0
SYMATTR InstName R1
SYMATTR Value 1K
SYMATTR SpiceLine tol=10 pwr=0.25
SYMBOL Misc\\SCR -80 -272 R0
SYMATTR InstName U1
SYMATTR Value EC103D1
SYMBOL Misc\\EuropeanResistor -528 -400 R270
WINDOW 0 27 56 VTop 2
WINDOW 3 28 58 Invisible 2
SYMATTR InstName Fuse
SYMATTR Value 0.000001
SYMBOL schottky 496 -592 R90
WINDOW 0 0 32 VBottom 2
WINDOW 3 32 32 VTop 2
SYMATTR InstName D7
SYMATTR Value 10MQ060N
SYMATTR Description Diode
SYMATTR Type diode
SYMBOL diode 240 -336 R90
WINDOW 0 0 32 VBottom 2
WINDOW 3 32 32 VTop 2
SYMATTR InstName D8
SYMATTR Value 1N4148
TEXT 64 128 Left 2 !.tran {tper+10m}
TEXT -144 240 Left 2 !.param Vs=12 Vgh=5 Vgl=0 tst=10m trf=5m to=500m tper=1
TEXT 56 160 Left 2 ;Vin Configuration
TEXT -424 280 Left 2 ;Solenoid: 1/4" 12VDC 4-Way, 3-Position Solenoid Air Control Valve (https://www.grainger.com/product/2G449)
TEXT -408 40 Left 2 !.include Thyristor_SCR_EC103xx_SxSx_A.lib
TEXT -536 -464 Left 2 ;0.5-1.0A Fuse
TEXT -280 -448 Left 2 ;Crowbar Circuit
TEXT 88 -472 Left 2 ;Solenoid w/ Protection
TEXT 624 -528 Left 2 ;Control Circuit
TEXT 592 -216 Left 2 ;On/Off LED
TEXT -408 72 Left 2 !.MODEL Dtvs D (IS=1.0e-5 RS=0.000133 N=1.5 IBV=10m BV=14.03 CJO=27000p)
RECTANGLE Normal 64 16 -368 -480 2
RECTANGLE Normal 368 -208 64 -512 2
RECTANGLE Normal 832 16 368 -640 2
