Version 4
SHEET 1 1112 952
WIRE -336 -416 -432 -416
WIRE -240 -416 -336 -416
WIRE -64 -416 -240 -416
WIRE -32 -416 -64 -416
WIRE 96 -416 32 -416
WIRE -240 -336 -240 -416
WIRE -64 -272 -64 -416
WIRE -336 -240 -336 -416
WIRE -240 -208 -240 -272
WIRE -160 -208 -240 -208
WIRE -112 -208 -160 -208
WIRE -240 -176 -240 -208
WIRE -160 -160 -160 -208
WIRE -336 -16 -336 -176
WIRE -240 -16 -240 -96
WIRE -240 -16 -336 -16
WIRE -208 -16 -240 -16
WIRE -160 -16 -160 -96
WIRE -160 -16 -208 -16
WIRE -64 -16 -64 -208
WIRE -64 -16 -160 -16
WIRE -208 16 -208 -16
FLAG -432 -416 IN
IOPIN -432 -416 In
FLAG 96 -416 OUT
IOPIN 96 -416 Out
FLAG -208 16 0
SYMBOL zener -224 -272 R180
WINDOW 0 24 64 Left 2
WINDOW 3 -120 -7 Left 2
SYMATTR InstName D3
SYMATTR Value BZX84C15L
SYMATTR Description Diode
SYMATTR Type diode
SYMBOL schottky -32 -400 R270
WINDOW 0 32 32 VTop 2
WINDOW 3 0 32 VBottom 2
SYMATTR InstName D6
SYMATTR Value B560C
SYMATTR Description Diode
SYMATTR Type diode
SYMBOL polcap -176 -160 R0
SYMATTR InstName C2
SYMATTR Value 47nF
SYMATTR Description Capacitor
SYMATTR Type cap
SYMATTR SpiceLine V=50 Irms=170m Rser=1 Lser=0 mfg="Nichicon" pn="UPG1H4R7MPH" type="Al electrolytic"
SYMBOL polcap -352 -240 R0
SYMATTR InstName C3
SYMATTR Value 100nF
SYMATTR Description Capacitor
SYMATTR Type cap
SYMATTR SpiceLine V=50 Irms=170m Rser=1 Lser=0 mfg="Nichicon" pn="UPG1H4R7MPH" type="Al electrolytic"
SYMBOL res -256 -192 R0
SYMATTR InstName R1
SYMATTR Value 1K
SYMATTR SpiceLine tol=10 pwr=0.25
SYMBOL Misc\\SCR -80 -272 R0
SYMATTR InstName U1
SYMATTR Value EC103D1
TEXT -392 80 Left 2 !.include Thyristor_SCR_EC103xx_SxSx_A.lib
TEXT -280 -448 Left 2 ;Crowbar Circuit
RECTANGLE Normal 48 48 -368 -480 2
