Version 4
SHEET 1 1356 808
WIRE -176 48 -256 48
WIRE -160 48 -176 48
WIRE 48 48 -48 48
WIRE -256 80 -256 48
WIRE 48 80 48 48
WIRE -176 160 -176 48
WIRE 0 160 -176 160
WIRE -256 224 -256 160
WIRE -112 224 -256 224
WIRE 48 224 48 176
WIRE 48 224 -112 224
WIRE -112 256 -112 224
FLAG -112 256 0
SYMBOL voltage -256 64 R0
WINDOW 3 -123 236 Left 2
WINDOW 123 23 101 Left 2
WINDOW 39 0 0 Left 2
SYMATTR Value PWL(0MS 0V 10MS 14V 1000MS 14V 1010MS 0V 2000MS 0V)
SYMATTR Value2 AC 1
SYMATTR InstName VSup
SYMBOL DCMotorCircuitModel -112 48 R0
SYMATTR InstName DCMotor
SYMBOL nmos 0 80 R0
SYMATTR InstName M1
SYMATTR Value BSB012N03LX3
TEXT -152 328 Left 2 !.tran 2
