From: <Saved by Windows Internet Explorer 7>
Subject: 
Date: Thu, 7 Mar 2013 17:36:46 -0600
MIME-Version: 1.0
Content-Type: text/html;
	charset="utf-8"
Content-Transfer-Encoding: quoted-printable
Content-Location: http://legacy.littelfuse.com/data/en/PSPICE_Models/zaseries.lib
X-MimeOLE: Produced By Microsoft MimeOLE V6.00.2900.6157

=EF=BB=BF<!DOCTYPE HTML PUBLIC "-//W3C//DTD HTML 4.0 Transitional//EN">
<HTML><HEAD>
<META http-equiv=3DContent-Type content=3D"text/html; charset=3Dutf-8">
<META content=3D"MSHTML 6.00.6000.17122" name=3DGENERATOR></HEAD>
<BODY><PRE>*******************************
*Varistor PSpice Model Netlist*
*******************************
*
* =EF=BF=BD 	Harris Semiconductor
*	30th April 1998
*	version 3.1
*
* Representing typical characteristics for the following ZA-Series =
varistors:=20
*
* V8ZA05	 V8ZA1	 V8ZA2	 V12ZA05	 V12ZA1	 V12ZA2
* V18ZA05	 V18ZA1	 V18ZA2	 V18ZA3	 V18ZA40
* V22ZA05	 V22ZA1	 V22ZA2	 V22ZA3	 V24ZA50
* V27ZA05	 V27ZA1 	 V27ZA2	 V27ZA4	 V27ZA60
* V33ZA05	 V33ZA1	 V33ZA2	 V33ZA5	 V33ZA70	 V36ZA80
* V39ZA05	 V39ZA1	 V39ZA3	 V39ZA6	 V39ZA20
* V47ZA05	 V47ZA1	 V47ZA3	 V47ZA7	 V47ZA20
* V56ZA05	 V56ZA2	 V56ZA3	 V56ZA8	 V56ZA20
* V68ZA05	 V68ZA2	 V68ZA3	 V68ZA10	 V68ZA20
* V82ZA05	 V82ZA2	 V82ZA4	 V82ZA12
* V100ZA05	 V100ZA3	 V100ZA4	 V100ZA15
* V120ZA05	 V120ZA1	 V120ZA4	 V120ZA6	 V120ZA20
* V150ZA05	 V150ZA1	 V150ZA4	 V150ZA8	 V150ZA20
* V180ZA05	 V180ZA1	 V180ZA5	 V180ZA10	 V180ZA20
* V205ZA05	 V220ZA05	 V240ZA05	 V270ZA05	 V330ZA05
* V360ZA05	 V390ZA05	 V430ZA05	 V470ZA05	 V620ZA05
* V680ZA05	 V715ZA05	 V750ZA05
*
*
.SUBCKT MOV  1 2 PARAMS: T=3D1 C=3D1pF L=3D1nH a1=3D1 a2=3D0 a3=3D0 =
a4=3D0 a5=3D0 a6=3D100u a7=3D100u
E_non_lin	3 1 	VALUE {T*(
+ 			a1+a2*(log10(limit(v(4),a7,1g))-3)
+			+a3/limit(v(4)*.001,a7/1e3,1g)
+			+a4*exp(-log10(limit(v(4),a7,1g))+3)
+ 			+a5*exp(log10(limit(v(4),a7,1g))-3)
+ 			-(a1+a2*(log10(-limit(v(4),-1g,-a7))-3)
+			-a3/limit(v(4)*.001,-1g,-a7/1e3)
+			+a4*exp(-log10(-limit(v(4),-1g,-a7))+3)
+ 			+a5*exp(log10(-limit(v(4),-1g,-a7))-3))
+ 			+limit(v(4)/a7*v(8),-v(8),v(8)))}
L_series	5 6  {L} =20
H_H1		4 0  VH_H1 1k
VH_H1		5 7 0V
R_R2		0 4  1G =20
R_series	6 2  {a6} =20
V_V1		3 7  0V
E_x_zero	8 0 	VALUE {a1+a2*(log10(a7/1e3))+a3/(a7/1e3)
+			+a4*exp(-log10(a7/1e3))+a5*exp(log10(a7/1e3))}
R_x_zero	8 0  1G
C_parallel	1 5 {C}
.ENDS
*
.SUBCKT V8ZA05 1 2 PARAMS: TOL=3D0
X1	1 2	MOV PARAMS: T=3D{1+TOL/100} L=3D12nH C=3D1.4nF a1=3D9.66 =
a2=3D0.611 a3=3D2.244e-7 a4=3D-4.86e-3 a5=3D5.379
.ENDS
*
.SUBCKT V8ZA1 1 2 PARAMS: TOL=3D0
X1	1 2	MOV PARAMS: T=3D{1+TOL/100} L=3D12nH C=3D3nF a1=3D11.75 =
a2=3D0.9466 a3=3D-1.705e-7 a4=3D9.927e-5 a5=3D3.761
.ENDS
*
.SUBCKT V8ZA2 1 2 PARAMS: TOL=3D0
X1	1 2	MOV PARAMS: T=3D{1+TOL/100} L=3D12nH C=3D7500pF a1=3D12.36 =
a2=3D1.359 a3=3D-6.598e-7 a4=3D4.867E-3 a5=3D2.551
.ENDS
*
.SUBCKT V12ZA05 1 2 PARAMS: TOL=3D0
X1	1 2	MOV PARAMS: T=3D{1+TOL/100} L=3D12nH C=3D1.2nF a1=3D14.49 =
a2=3D0.917 a3=3D3.366e-7 a4=3D-7.291e-3 a5=3D8.068
.ENDS
*
.SUBCKT V12ZA1 1 2 PARAMS: TOL=3D0
X1	1 2	MOV PARAMS: T=3D{1+TOL/100} L=3D12nH C=3D2.5nF a1=3D17.28 =
a2=3D1.392 a3=3D-2.508e-7 a4=3D1.46e-4 a5=3D5.531
.ENDS
*
.SUBCKT V12ZA2 1 2 PARAMS: TOL=3D0
X1	1 2	MOV PARAMS: T=3D{1+TOL/100} L=3D12nH C=3D6000pF a1=3D18.17 =
a2=3D1.999 a3=3D-9.703e-7 a4=3D7.157E-3 a5=3D3.752
.ENDS
*
.SUBCKT V18ZA05 1 2 PARAMS: TOL=3D0
X1	1 2	MOV PARAMS: T=3D{1+TOL/100} L=3D12nH C=3D1nF a1=3D23.34 =
a2=3D1.736 a3=3D-1.961e-7 a4=3D-1.247e-3 a5=3D7.441 a6=3D26.61e-3
.ENDS
*
.SUBCKT V18ZA1 1 2 PARAMS: TOL=3D0
X1	1 2	MOV PARAMS: T=3D{1+TOL/100} L=3D12nH C=3D2nF a1=3D22.38 =
a2=3D1.491 a3=3D-3.453e-7 a4=3D-3.679E-3 a5=3D3.491
.ENDS
*
.SUBCKT V18ZA2 1 2 PARAMS: TOL=3D0
X1	1 2	MOV PARAMS: T=3D{1+TOL/100} L=3D12nH C=3D5000pF a1=3D23.06 =
a2=3D1.69 a3=3D-3.326e-7 a4=3D-5.19E-3 a5=3D2.401
.ENDS
*
.SUBCKT V18ZA3 1 2 PARAMS: TOL=3D0
X1	1 2	MOV PARAMS: T=3D{1+TOL/100} L=3D12nH C=3D11nF a1=3D22.96 =
a2=3D1.699 a3=3D-1.2e-6 a4=3D2.25E-3 a5=3D1.971
.ENDS
*
.SUBCKT V18ZA40 1 2 PARAMS: TOL=3D0
X1	1 2	MOV PARAMS: T=3D{1+TOL/100} L=3D12nH C=3D22nF a1=3D21.92 =
a2=3D1.994 a3=3D2.525e-7 a4=3D-8.962e-3 a5=3D0.986 a6=3D.00841 a7=3D2e-4
.ENDS
*
.SUBCKT V22ZA05 1 2 PARAMS: TOL=3D0
X1	1 2	MOV PARAMS: T=3D{1+TOL/100} L=3D12nH C=3D800pF a1=3D28.53 =
a2=3D2.122 a3=3D-2.397e-7 a4=3D-1.524e-3 a5=3D9.094 a6=3D32.53e-3
.ENDS
*
.SUBCKT V22ZA1 1 2 PARAMS: TOL=3D0
X1	1 2	MOV PARAMS: T=3D{1+TOL/100} L=3D12nH C=3D1.6nF a1=3D27.85 =
a2=3D1.856 a3=3D-4.298e-7 a4=3D-4.578E-3 a5=3D4.345
.ENDS
*
.SUBCKT V22ZA2 1 2 PARAMS: TOL=3D0
X1	1 2	MOV PARAMS: T=3D{1+TOL/100} L=3D12nH C=3D4000pF a1=3D28.69 =
a2=3D2.103 a3=3D-4.139e-7 a4=3D-6.459E-3 a5=3D2.988
.ENDS
*
.SUBCKT V22ZA3 1 2 PARAMS: TOL=3D0
X1	1 2	MOV PARAMS: T=3D{1+TOL/100} L=3D12nH C=3D9nF a1=3D28.57 =
a2=3D2.114 a3=3D-1.494e-6 a4=3D2.8E-3 a5=3D2.453
.ENDS
*
.SUBCKT V24ZA50 1 2 PARAMS: TOL=3D0
X1	1 2	MOV PARAMS: T=3D{1+TOL/100} L=3D12nH C=3D15nF a1=3D27.52 =
a2=3D2.504 a3=3D3.17e-7 a4=3D-1.125e-2 a5=3D1.238 a6=3D.01056 a7=3D2e-4
.ENDS
*
.SUBCKT V27ZA05 1 2 PARAMS: TOL=3D0
X1	1 2	MOV PARAMS: T=3D{1+TOL/100} L=3D12nH C=3D600pF a1=3D35.01 =
a2=3D2.604 a3=3D-2.941e-7 a4=3D-1.871e-3 a5=3D11.16 a6=3D39.92e-3
.ENDS
*
.SUBCKT V27ZA1 1 2 PARAMS: TOL=3D0
X1	1 2	MOV PARAMS: T=3D{1+TOL/100} L=3D12nH C=3D1.3nF a1=3D33.57 =
a2=3D2.237 a3=3D-5.18e-7 a4=3D-5.518E-3 a5=3D5.237
.ENDS
*
.SUBCKT V27ZA2 1 2 PARAMS: TOL=3D0
X1	1 2	MOV PARAMS: T=3D{1+TOL/100} L=3D12nH C=3D3000pF a1=3D34.59 =
a2=3D2.535 a3=3D-4.989e-7 a4=3D-7.785E-3 a5=3D3.601
.ENDS
*
.SUBCKT V27ZA4 1 2 PARAMS: TOL=3D0
X1	1 2	MOV PARAMS: T=3D{1+TOL/100} L=3D12nH C=3D7nF a1=3D34.43 =
a2=3D2.548 a3=3D-1.8e-6 a4=3D3.375E-3 a5=3D2.957
.ENDS
*
.SUBCKT V27ZA60 1 2 PARAMS: TOL=3D0
X1	1 2	MOV PARAMS: T=3D{1+TOL/100} L=3D12nH C=3D13nF a1=3D32.88 =
a2=3D2.992 a3=3D3.788e-7 a4=3D-1.344e-2 a5=3D1.479 a6=3D.01262 a7=3D2e-4
.ENDS
*
.SUBCKT V33ZA05 1 2 PARAMS: TOL=3D0
X1	1 2	MOV PARAMS: T=3D{1+TOL/100} L=3D12nH C=3D500pF a1=3D42.79 =
a2=3D3.182 a3=3D-3.595e-7 a4=3D-2.287e-3 a5=3D13.64 a6=3D48.79e-3
.ENDS
*
.SUBCKT V33ZA1 1 2 PARAMS: TOL=3D0
X1	1 2	MOV PARAMS: T=3D{1+TOL/100} L=3D12nH C=3D1.1nF a1=3D41.02 =
a2=3D2.734 a3=3D-6.331e-7 a4=3D-6.745E-3 a5=3D6.401
.ENDS
*
.SUBCKT V33ZA2 1 2 PARAMS: TOL=3D0
X1	1 2	MOV PARAMS: T=3D{1+TOL/100} L=3D12nH C=3D2700pF a1=3D42.27 =
a2=3D3.098 a3=3D-6.097e-7 a4=3D-9.515E-3 a5=3D4.402
.ENDS
*
.SUBCKT V33ZA5 1 2 PARAMS: TOL=3D0
X1	1 2	MOV PARAMS: T=3D{1+TOL/100} L=3D12nH C=3D6nF a1=3D42.09 =
a2=3D3.115 a3=3D-2.201e-6 a4=3D4.125E-3 a5=3D3.614
.ENDS
*
.SUBCKT V33ZA70 1 2 PARAMS: TOL=3D0
X1	1 2	MOV PARAMS: T=3D{1+TOL/100} L=3D12nH C=3D13nF a1=3D40.19 =
a2=3D3.657 a3=3D4.629e-7 a4=3D-1.643e-2 a5=3D1.808 a6=3D.01542 a7=3D2e-4
.ENDS
*
.SUBCKT V36ZA80 1 2 PARAMS: TOL=3D0
X1	1 2	MOV PARAMS: T=3D{1+TOL/100} L=3D12nH C=3D12nF a1=3D43.84 =
a2=3D3.989 a3=3D5.05e-7 a4=3D-1.792e-2 a5=3D1.973 a6=3D.01683 a7=3D2e-4
.ENDS
*
.SUBCKT V39ZA05 1 2 PARAMS: TOL=3D0
X1	1 2	MOV PARAMS: T=3D{1+TOL/100} L=3D12nH C=3D500pF a1=3D48.44 =
a2=3D3.24 a3=3D-1.463e-6 a4=3D2.248e-3 a5=3D10.68 a6=3D8.72e-3
.ENDS
*
.SUBCKT V39ZA1 1 2 PARAMS: TOL=3D0
X1	1 2	MOV PARAMS: T=3D{1+TOL/100} L=3D12nH C=3D1nF a1=3D48.48 =
a2=3D3.231 a3=3D-7.483e-7 a4=3D-7.971E-3 a5=3D7.565
.ENDS
*
.SUBCKT V39ZA3 1 2 PARAMS: TOL=3D0
X1	1 2	MOV PARAMS: T=3D{1+TOL/100} L=3D12nH C=3D2500pF a1=3D49.96 =
a2=3D3.662 a3=3D-7.206e-7 a4=3D-1.124E-3 a5=3D5.202
.ENDS
*
.SUBCKT V39ZA6 1 2 PARAMS: TOL=3D0
X1	1 2	MOV PARAMS: T=3D{1+TOL/100} L=3D12nH C=3D5.5nF a1=3D49.74 =
a2=3D3.681 a3=3D-2.601e-6 a4=3D4.875E-3 a5=3D4.271
.ENDS
*
.SUBCKT V39ZA20 1 2 PARAMS: TOL=3D0
X1	1 2	MOV PARAMS: T=3D{1+TOL/100} L=3D12nH C=3D12nF a1=3D53.96 =
a2=3D4.877 a3=3D6.649e-7 a4=3D-2.267e-2 a5=3D2.436 a6=3D.02064 a7=3D2e-4
.ENDS
*
.SUBCKT V47ZA05 1 2 PARAMS: TOL=3D0
X1	1 2	MOV PARAMS: T=3D{1+TOL/100} L=3D12nH C=3D400pF a1=3D58.38 =
a2=3D3.905 a3=3D-1.764e-6 a4=3D2.709e-3 a5=3D12.87 a6=3D10.51e-3
.ENDS
*
.SUBCKT V47ZA1 1 2 PARAMS: TOL=3D0
X1	1 2	MOV PARAMS: T=3D{1+TOL/100} L=3D12nH C=3D800pF a1=3D59.27 =
a2=3D4.393 a3=3D-4.392e-6 a4=3D2.642e-2 a5=3D7.903
.ENDS
*
.SUBCKT V47ZA3 1 2 PARAMS: TOL=3D0
X1	1 2	MOV PARAMS: T=3D{1+TOL/100} L=3D12nH C=3D2000pF a1=3D58.11 =
a2=3D4.21 a3=3D-8.605e-6 a4=3D3.311e-2 a5=3D6.011 a7=3D2e-4
.ENDS
*
.SUBCKT V47ZA7 1 2 PARAMS: TOL=3D0
X1	1 2	MOV PARAMS: T=3D{1+TOL/100} L=3D12nH C=3D4.5nF a1=3D60.22 =
a2=3D4.42 a3=3D-1.137e-5 a4=3D2.646e-2 a5=3D3.556 a6=3D2.048e-2 =
a7=3D4e-4
.ENDS
*
.SUBCKT V47ZA20 1 2 PARAMS: TOL=3D0
X1	1 2	MOV PARAMS: T=3D{1+TOL/100} L=3D12nH C=3D11nF a1=3D57.93 =
a2=3D3.815 a3=3D-1.375e-5 a4=3D1.885e-2 a5=3D3.246 a7=3D4e-4
.ENDS
*
.SUBCKT V56ZA05 1 2 PARAMS: TOL=3D0
X1	1 2	MOV PARAMS: T=3D{1+TOL/100} L=3D12nH C=3D360pF a1=3D69.56 =
a2=3D4.653 a3=3D-2.101e-6 a4=3D3.228e-3 a5=3D15.33 a6=3D12.53e-3
.ENDS
*
.SUBCKT V56ZA2 1 2 PARAMS: TOL=3D0
X1	1 2	MOV PARAMS: T=3D{1+TOL/100} L=3D12nH C=3D700pF a1=3D70.62 =
a2=3D5.235 a3=3D-5.233e-6 a4=3D3.148E-2 a5=3D9.416
.ENDS
*
.SUBCKT V56ZA3 1 2 PARAMS: TOL=3D0
X1	1 2	MOV PARAMS: T=3D{1+TOL/100} L=3D12nH C=3D1800pF a1=3D69.24 =
a2=3D5.016 a3=3D-1.025e-5 a4=3D3.945E-2 a5=3D7.162 a7=3D2e-4
.ENDS
*
.SUBCKT V56ZA8 1 2 PARAMS: TOL=3D0
X1	1 2	MOV PARAMS: T=3D{1+TOL/100} L=3D12nH C=3D3.9nF a1=3D71.75 =
a2=3D5.266 a3=3D-1.354e-5 a4=3D3.153e-2 a5=3D4.237 a6=3D2.44e-2 =
a7=3D4e-4
.ENDS
*
.SUBCKT V56ZA20 1 2 PARAMS: TOL=3D0
X1	1 2	MOV PARAMS: T=3D{1+TOL/100} L=3D12nH C=3D10nF a1=3D69.02 =
a2=3D4.546 a3=3D-1.639e-5 a4=3D2.246e-2 a5=3D3.867 a7=3D4e-4
.ENDS
*
.SUBCKT V68ZA05 1 2 PARAMS: TOL=3D0
X1	1 2	MOV PARAMS: T=3D{1+TOL/100} L=3D12nH C=3D300pF a1=3D84.47 =
a2=3D5.65 a3=3D-2.551e-6 a4=3D3.92e-3 a5=3D18.62 a6=3D15.21e-3
.ENDS
*
.SUBCKT V68ZA2 1 2 PARAMS: TOL=3D0
X1	1 2	MOV PARAMS: T=3D{1+TOL/100} L=3D12nH C=3D600pF a1=3D85.75 =
a2=3D6.356 a3=3D-6.354e-6 a4=3D3.823E-2 a5=3D11.43
.ENDS
*
.SUBCKT V68ZA3 1 2 PARAMS: TOL=3D0
X1	1 2	MOV PARAMS: T=3D{1+TOL/100} L=3D12nH C=3D1500pF a1=3D84.07 =
a2=3D6.09 a3=3D-1.245e-5 a4=3D4.791E-2 a5=3D8.697 a7=3D2e-4
.ENDS
*
.SUBCKT V68ZA10 1 2 PARAMS: TOL=3D0
X1	1 2	MOV PARAMS: T=3D{1+TOL/100} L=3D12nH C=3D3.3nF a1=3D87.13 =
a2=3D6.395 a3=3D-1.644e-5 a4=3D3.828e-2 a5=3D5.145 a6=3D2.963e-2 =
a7=3D4e-4
.ENDS
*
.SUBCKT V68ZA20 1 2 PARAMS: TOL=3D0
X1	1 2	MOV PARAMS: T=3D{1+TOL/100} L=3D12nH C=3D10nF a1=3D83.81 =
a2=3D5.52 a3=3D-1.99e-5 a4=3D2.727e-2 a5=3D4.696 a7=3D4e-4
.ENDS
*
.SUBCKT V82ZA05 1 2 PARAMS: TOL=3D0
X1	1 2	MOV PARAMS: T=3D{1+TOL/100} L=3D12nH C=3D240pF a1=3D101.4 =
a2=3D6.744 a3=3D-3.749e-6 a4=3D22.78e-3 a5=3D7.373 a6=3D52.48e-3
.ENDS
*
.SUBCKT V82ZA2 1 2 PARAMS: TOL=3D0
X1	1 2	MOV PARAMS: T=3D{1+TOL/100} L=3D12nH C=3D500pF a1=3D93.01 =
a2=3D3.797 a3=3D-3.468e-6 a4=3D9.391e-4 a5=3D7.53
.ENDS
*
.SUBCKT V82ZA4 1 2 PARAMS: TOL=3D0
X1	1 2	MOV PARAMS: T=3D{1+TOL/100} L=3D12nH C=3D1100pF a1=3D96.24 =
a2=3D4.92 a3=3D-6.434e-6 a4=3D1.621e-2 a5=3D4.15
.ENDS
*
.SUBCKT V82ZA12 1 2 PARAMS: TOL=3D0
X1	1 2	MOV PARAMS: T=3D{1+TOL/100} L=3D12nH C=3D2.5nF a1=3D97.73 =
a2=3D5.35 a3=3D-6.116e-6 a4=3D9.57e-3 a5=3D2.712 a6=3D1.381e-2
.ENDS
*
.SUBCKT V100ZA05 1 2 PARAMS: TOL=3D0
X1	1 2	MOV PARAMS: T=3D{1+TOL/100} L=3D12nH C=3D180pF a1=3D123.7 =
a2=3D8.225 a3=3D-4.572e-6 a4=3D27.78e-3 a5=3D8.991 a6=3D64e-3
.ENDS
*
.SUBCKT V100ZA3 1 2 PARAMS: TOL=3D0
X1	1 2	MOV PARAMS: T=3D{1+TOL/100} L=3D12nH C=3D400pF a1=3D113.4 =
a2=3D4.63 a3=3D-4.229e-6 a4=3D1.145E-3 a5=3D9.183
.ENDS
*
.SUBCKT V100ZA4 1 2 PARAMS: TOL=3D0
X1	1 2	MOV PARAMS: T=3D{1+TOL/100} L=3D12nH C=3D900pF a1=3D117.36 a2=3D6 =
a3=3D-7.847e-6 a4=3D1.977E-2 a5=3D5.061
.ENDS
*
.SUBCKT V100ZA15 1 2 PARAMS: TOL=3D0
X1	1 2	MOV PARAMS: T=3D{1+TOL/100} L=3D12nH C=3D2nF a1=3D119.18 =
a2=3D6.524 a3=3D-7.459e-6 a4=3D1.167e-2 a5=3D3.307 a6=3D1.684e-2
.ENDS
*
.SUBCKT V120ZA05 1 2 PARAMS: TOL=3D0
X1	1 2	MOV PARAMS: T=3D{1+TOL/100} L=3D12nH C=3D140pF a1=3D148.4 =
a2=3D9.869 a3=3D-5.486e-6 a4=3D33.33e-3 a5=3D10.79 a6=3D76.8e-3
.ENDS
*
.SUBCKT V120ZA1 1 2 PARAMS: TOL=3D0
X1	1 2	MOV PARAMS: T=3D{1+TOL/100} L=3D12nH C=3D300pF a1=3D136.1 =
a2=3D5.556 a3=3D-5.075e-6 a4=3D1.374E-3 a5=3D11.02
.ENDS
*
.SUBCKT V120ZA4 1 2 PARAMS: TOL=3D0
X1	1 2	MOV PARAMS: T=3D{1+TOL/100} L=3D12nH C=3D750pF a1=3D140.84 =
a2=3D7.2 a3=3D-9.416e-6 a4=3D2.372E-2 a5=3D6.073
.ENDS
*
.SUBCKT V120ZA6 1 2 PARAMS: TOL=3D0
X1	1 2	MOV PARAMS: T=3D{1+TOL/100} L=3D12nH C=3D1.7nF a1=3D143.02 =
a2=3D7.829 a3=3D-8.951e-6 a4=3D1.401e-2 a5=3D3.968 a6=3D2.021e-2
.ENDS
*
.SUBCKT V120ZA20 1 2 PARAMS: TOL=3D0
X1	1 2	MOV PARAMS: T=3D{1+TOL/100} L=3D12nH C=3D1.5nF a1=3D145.5 =
a2=3D8.295 a3=3D-4.5445e-6 a4=3D-3.328e-2 a5=3D2.071 a6=3D.01255
.ENDS
*
.SUBCKT V150ZA05 1 2 PARAMS: TOL=3D0
X1	1 2	MOV PARAMS: T=3D{1+TOL/100} L=3D12nH C=3D120pF a1=3D185.5 =
a2=3D12.34 a3=3D-6.858e-6 a4=3D41.67e-3 a5=3D13.49 a6=3D96e-3
.ENDS
*
.SUBCKT V150ZA1 1 2 PARAMS: TOL=3D0
X1	1 2	MOV PARAMS: T=3D{1+TOL/100} L=3D12nH C=3D250pF a1=3D170.1 =
a2=3D6.945 a3=3D-6.344e-6 a4=3D1.718E-3 a5=3D13.77
.ENDS
.SUBCKT V150ZA4 1 2 PARAMS: TOL=3D0
X1	1 2	MOV PARAMS: T=3D{1+TOL/100} L=3D12nH C=3D600pF a1=3D176.05 a2=3D9 =
a3=3D-1.177e-5 a4=3D2.965E-2 a5=3D7.592
.ENDS
*
.SUBCKT V150ZA8 1 2 PARAMS: TOL=3D0
X1	1 2	MOV PARAMS: T=3D{1+TOL/100} L=3D12nH C=3D1.4nF a1=3D178.77 =
a2=3D9.786 a3=3D-1.119e-5 a4=3D1.751e-2 a5=3D4.96 a6=3D2.527e-2
.ENDS
*
.SUBCKT V150ZA20 1 2 PARAMS: TOL=3D0
X1	1 2	MOV PARAMS: T=3D{1+TOL/100} L=3D12nH C=3D1nF a1=3D181.8 =
a2=3D10.37 a3=3D-5.68e-6 a4=3D-4.16e-2 a5=3D2.588 a6=3D.01569
.ENDS
*
.SUBCKT V180ZA05 1 2 PARAMS: TOL=3D0
X1	1 2	MOV PARAMS: T=3D{1+TOL/100} L=3D12nH C=3D100pF a1=3D216.6 =
a2=3D12.82 a3=3D-1.111e-5 a4=3D68.17e-3 a5=3D10.5 a6=3D26.95e-3
.ENDS
*
.SUBCKT V180ZA1 1 2 PARAMS: TOL=3D0
X1	1 2	MOV PARAMS: T=3D{1+TOL/100} L=3D12nH C=3D200pF a1=3D204.2 =
a2=3D8.334 a3=3D-7.612e-6 a4=3D2.061E-3 a5=3D16.53
.ENDS
*
.SUBCKT V180ZA5 1 2 PARAMS: TOL=3D0
X1	1 2	MOV PARAMS: T=3D{1+TOL/100} L=3D12nH C=3D500pF a1=3D211.25 =
a2=3D10.8 a3=3D-1.412e-5 a4=3D3.558E-2 a5=3D9.11
.ENDS
*
.SUBCKT V180ZA10 1 2 PARAMS: TOL=3D0
X1	1 2	MOV PARAMS: T=3D{1+TOL/100} L=3D12nH C=3D1.1nF a1=3D214.5 =
a2=3D11.74 a3=3D-1.343e-5 a4=3D2.101e-2 a5=3D5.953 a6=3D3.032e-2
.ENDS
*
.SUBCKT V180ZA20 1 2 PARAMS: TOL=3D0
X1	1 2	MOV PARAMS: T=3D{1+TOL/100} L=3D12nH C=3D2.4nF a1=3D218.2 =
a2=3D12.44 a3=3D-6.816e-6 a4=3D-4.992e-2 a5=3D3.106 a6=3D.01882
.ENDS
*
.SUBCKT V205ZA05 1 2 PARAMS: TOL=3D0
X1	1 2	MOV PARAMS: T=3D{1+TOL/100} L=3D12nH C=3D100pF a1=3D246.6 =
a2=3D14.59 a3=3D-1.265e-5 a4=3D77.63e-3 a5=3D11.96 a6=3D30.69e-3
.ENDS
*
.SUBCKT V220ZA05 1 2 PARAMS: TOL=3D0
X1	1 2	MOV PARAMS: T=3D{1+TOL/100} L=3D12nH C=3D90pF a1=3D264.7 =
a2=3D15.66 a3=3D-1.358e-5 a4=3D83.32e-3 a5=3D12.84 a6=3D32.94e-3
.ENDS
*
.SUBCKT V240ZA05 1 2 PARAMS: TOL=3D0
X1	1 2	MOV PARAMS: T=3D{1+TOL/100} L=3D12nH C=3D80pF a1=3D288.8 =
a2=3D17.09 a3=3D-1.481e-5 a4=3D90.89e-3 a5=3D14 a6=3D35.93e-3
.ENDS
*
.SUBCKT V270ZA05 1 2 PARAMS: TOL=3D0
X1	1 2	MOV PARAMS: T=3D{1+TOL/100} L=3D12nH C=3D70pF a1=3D324.8 =
a2=3D19.22 a3=3D-1.666e-5 a4=3D0.1203 a5=3D15.76 a6=3D40.42e-3
.ENDS
*
.SUBCKT V330ZA05 1 2 PARAMS: TOL=3D0
X1	1 2	MOV PARAMS: T=3D{1+TOL/100} L=3D12nH C=3D60pF a1=3D397 a2=3D23.49 =
a3=3D-2.036e-5 a4=3D0.125 a5=3D19.26 a6=3D49.4e-3
.ENDS
*
.SUBCKT V360ZA05 1 2 PARAMS: TOL=3D0
X1	1 2	MOV PARAMS: T=3D{1+TOL/100} L=3D12nH C=3D55pF a1=3D433.1 =
a2=3D25.63 a3=3D-2.222e-5 a4=3D0.1363 a5=3D21.01 a6=3D53.89e-3
.ENDS
*
.SUBCKT V390ZA05 1 2 PARAMS: TOL=3D0
X1	1 2	MOV PARAMS: T=3D{1+TOL/100} L=3D12nH C=3D50pF a1=3D484.7 =
a2=3D33.1 a3=3D-3.247e-5 a4=3D0.1789 a5=3D21.36 a6=3D0.1704
.ENDS
*
.SUBCKT V430ZA05 1 2 PARAMS: TOL=3D0
X1	1 2	MOV PARAMS: T=3D{1+TOL/100} L=3D12nH C=3D45pF a1=3D534.4 =
a2=3D36.49 a3=3D-3.58e-5 a4=3D0.1972 a5=3D23.55 a6=3D0.1879
.ENDS
*
.SUBCKT V470ZA05 1 2 PARAMS: TOL=3D0
X1	1 2	MOV PARAMS: T=3D{1+TOL/100} L=3D12nH C=3D35pF a1=3D584.1 =
a2=3D39.88 a3=3D-3.913e-5 a4=3D0.2156 a5=3D25.75 a6=3D0.2054
.ENDS
*
.SUBCKT V620ZA05 1 2 PARAMS: TOL=3D0
X1	1 2	MOV PARAMS: T=3D{1+TOL/100} L=3D12nH C=3D33pF a1=3D770.5 =
a2=3D52.61 a3=3D-5.162e-5 a4=3D0.2844 a5=3D33.96 a6=3D0.2709
.ENDS
*
.SUBCKT V680ZA05 1 2 PARAMS: TOL=3D0
X1	1 2	MOV PARAMS: T=3D{1+TOL/100} L=3D12nH C=3D32pF a1=3D845.1 =
a2=3D57.71 a3=3D-5.662e-5 a4=3D0.3119 a5=3D37.25 a6=3D0.2971
.ENDS
*
.SUBCKT V715ZA05 1 2 PARAMS: TOL=3D0
X1	1 2	MOV PARAMS: T=3D{1+TOL/100} L=3D12nH C=3D31pF a1=3D888.5 =
a2=3D60.68 a3=3D-5.953e-5 a4=3D0.328 a5=3D39.17 a6=3D0.3124
.ENDS
*
.SUBCKT V750ZA05 1 2 PARAMS: TOL=3D0
X1	1 2	MOV PARAMS: T=3D{1+TOL/100} L=3D12nH C=3D30pF a1=3D932 a2=3D63.65 =
a3=3D-6.245e-5 a4=3D0.344 a5=3D41.08 a6=3D0.3277
.ENDS
*
*
</PRE></BODY></HTML>
