Version 4
SHEET 1 880 680
WIRE 144 96 -48 96
WIRE -48 128 -48 96
WIRE -48 256 -48 208
FLAG -48 256 0
SYMBOL voltage -48 112 R0
SYMATTR InstName V1
